<?xml version="1.0" encoding="UTF-8"?>

<!-- generated on 2025-11-02 12:26:09.023375 by randomTrips.py v1_24_0+0000-b72eb3fabc8
<configuration>
    <net-file value="D:\AfterGradEx\de_traffic_control\map.net.xml"/>
    <output-trip-file value="D:\AfterGradEx\de_traffic_control\trips_rush_0.trips.xml"/>
    <end value="1800.0"/>
    <period value="2.2"/>
</configuration>
-->

<routes xmlns:xsi="http://www.w3.org/2001/XMLSchema-instance" xsi:noNamespaceSchemaLocation="http://sumo.dlr.de/xsd/routes_file.xsd">
    <trip id="0" depart="0.00" from="1265822568#1" to="1163556238#1"/>
    <trip id="1" depart="2.20" from="1200728225#2" to="1221994726#1"/>
    <trip id="2" depart="4.40" from="1265822568#1" to="1221994726#2"/>
    <trip id="3" depart="6.60" from="1200728225#2" to="1221994726#2"/>
    <trip id="4" depart="8.80" from="1422795954" to="1200728225#4"/>
    <trip id="5" depart="11.00" from="1200728225#0" to="1200728225#0"/>
    <trip id="6" depart="13.20" from="1265822568#0" to="1267462159#3"/>
    <trip id="7" depart="15.40" from="1200728225#4" to="1221994726#2"/>
    <trip id="8" depart="17.60" from="1265822568#2" to="1163556238#1"/>
    <trip id="9" depart="19.80" from="1200728225#2" to="1200728225#3"/>
    <trip id="10" depart="22.00" from="1200728225#0" to="1200728225#2"/>
    <trip id="11" depart="24.20" from="1200728225#0" to="1200728225#3"/>
    <trip id="12" depart="26.40" from="1265822568#1" to="1200728225#4"/>
    <trip id="13" depart="28.60" from="1200728225#3" to="1267462159#3"/>
    <trip id="14" depart="30.80" from="1265822568#1" to="1265822568#1"/>
    <trip id="15" depart="33.00" from="1200728225#1" to="1200728225#4"/>
    <trip id="16" depart="35.20" from="1265822568#0" to="1265822568#2"/>
    <trip id="17" depart="37.40" from="1200728225#2" to="1163556238#1"/>
    <trip id="18" depart="39.60" from="1200728225#3" to="1200728225#3"/>
    <trip id="19" depart="41.80" from="1200728225#2" to="1267462159#3"/>
    <trip id="20" depart="44.00" from="1265822568#1" to="1200728225#4"/>
    <trip id="21" depart="46.20" from="1200728225#2" to="1200728225#2"/>
    <trip id="22" depart="48.40" from="1265822568#0" to="1200728225#2"/>
    <trip id="23" depart="50.60" from="1265822568#0" to="1267462159#2"/>
    <trip id="24" depart="52.80" from="1422795954" to="1221994726#1"/>
    <trip id="25" depart="55.00" from="1200728225#0" to="1163556238#1"/>
    <trip id="26" depart="57.20" from="1265822568#3" to="1221994726#0"/>
    <trip id="27" depart="59.40" from="1422795954" to="1221994726#1"/>
    <trip id="28" depart="61.60" from="1422795954" to="1267462159#1"/>
    <trip id="29" depart="63.80" from="1265822568#2" to="1221994726#2"/>
    <trip id="30" depart="66.00" from="1200728225#0" to="1221994726#0"/>
    <trip id="31" depart="68.20" from="1221994726#0" to="1267462159#3"/>
    <trip id="32" depart="70.40" from="1267462159#2" to="1267462159#2"/>
    <trip id="33" depart="72.60" from="1265822568#3" to="1221994726#2"/>
    <trip id="34" depart="74.80" from="1265822568#3" to="1221994726#1"/>
    <trip id="35" depart="77.00" from="-1163556238#1" to="1267462159#2"/>
    <trip id="36" depart="79.20" from="1200728225#3" to="1163556238#1"/>
    <trip id="37" depart="81.40" from="1267462159#2" to="1267462159#3"/>
    <trip id="38" depart="83.60" from="1200728225#0" to="1221994726#1"/>
    <trip id="39" depart="85.80" from="1221994726#1" to="1221994726#2"/>
    <trip id="40" depart="88.00" from="1200728225#2" to="1267462159#2"/>
    <trip id="41" depart="90.20" from="1265822568#0" to="1265822568#2"/>
    <trip id="42" depart="92.40" from="1200728225#2" to="1200728225#3"/>
    <trip id="43" depart="94.60" from="1221994726#0" to="1221994726#1"/>
    <trip id="44" depart="96.80" from="1200728225#0" to="1200728225#2"/>
    <trip id="45" depart="99.00" from="1200728225#4" to="1221994726#2"/>
    <trip id="46" depart="101.20" from="1200728225#2" to="1200728225#2"/>
    <trip id="47" depart="103.40" from="1200728225#2" to="1267462159#2"/>
    <trip id="48" depart="105.60" from="1422795954" to="1221994726#2"/>
    <trip id="49" depart="107.80" from="1200728225#0" to="1221994726#0"/>
    <trip id="50" depart="110.00" from="1221994726#0" to="1221994726#1"/>
    <trip id="51" depart="112.20" from="1265822568#2" to="1265822568#2"/>
    <trip id="52" depart="114.40" from="1422795954" to="1200728225#0"/>
    <trip id="53" depart="116.60" from="1200728225#1" to="1221994726#0"/>
    <trip id="54" depart="118.80" from="1200728225#2" to="1267462159#2"/>
    <trip id="55" depart="121.00" from="1221994726#0" to="1267462159#1"/>
    <trip id="56" depart="123.20" from="1265822568#0" to="1163556238#1"/>
    <trip id="57" depart="125.40" from="1422795954" to="1267462159#1"/>
    <trip id="58" depart="127.60" from="1422795954" to="1267462159#2"/>
    <trip id="59" depart="129.80" from="1200728225#4" to="1267462159#3"/>
    <trip id="60" depart="132.00" from="1221994726#0" to="1221994726#0"/>
    <trip id="61" depart="134.20" from="1422795954" to="1267462159#3"/>
    <trip id="62" depart="136.40" from="1265822568#0" to="1265822568#2"/>
    <trip id="63" depart="138.60" from="1200728225#1" to="1200728225#3"/>
    <trip id="64" depart="140.80" from="1422795954" to="1221994726#2"/>
    <trip id="65" depart="143.00" from="1265822568#0" to="1265822568#3"/>
    <trip id="66" depart="145.20" from="-1163556238#1" to="1221994726#2"/>
    <trip id="67" depart="147.40" from="1200728225#1" to="1267462159#3"/>
    <trip id="68" depart="149.60" from="1200728225#0" to="1200728225#1"/>
    <trip id="69" depart="151.80" from="1265822568#0" to="1265822568#2"/>
    <trip id="70" depart="154.00" from="1265822568#0" to="1265822568#1"/>
    <trip id="71" depart="156.20" from="1221994726#0" to="1221994726#2"/>
    <trip id="72" depart="158.40" from="1200728225#2" to="1200728225#4"/>
    <trip id="73" depart="160.60" from="1265822568#2" to="1200728225#3"/>
    <trip id="74" depart="162.80" from="1200728225#0" to="1221994726#0"/>
    <trip id="75" depart="165.00" from="1422795954" to="1267462159#3"/>
    <trip id="76" depart="167.20" from="1200728225#0" to="1200728225#2"/>
    <trip id="77" depart="169.40" from="1200728225#2" to="1267462159#2"/>
    <trip id="78" depart="171.60" from="1267462159#2" to="1267462159#2"/>
    <trip id="79" depart="173.80" from="1265822568#1" to="1267462159#3"/>
    <trip id="80" depart="176.00" from="1265822568#1" to="1163556238#1"/>
    <trip id="81" depart="178.20" from="1265822568#1" to="1267462159#3"/>
    <trip id="82" depart="180.40" from="1200728225#0" to="1221994726#2"/>
    <trip id="83" depart="182.60" from="1265822568#2" to="1200728225#2"/>
    <trip id="84" depart="184.80" from="1265822568#1" to="1200728225#2"/>
    <trip id="85" depart="187.00" from="1265822568#1" to="1200728225#2"/>
    <trip id="86" depart="189.20" from="1265822568#3" to="1221994726#2"/>
    <trip id="87" depart="191.40" from="1200728225#0" to="1267462159#2"/>
    <trip id="88" depart="193.60" from="1200728225#3" to="1267462159#2"/>
    <trip id="89" depart="195.80" from="1265822568#3" to="1267462159#1"/>
    <trip id="90" depart="198.00" from="1265822568#3" to="1267462159#2"/>
    <trip id="91" depart="200.20" from="1200728225#1" to="1267462159#2"/>
    <trip id="92" depart="202.40" from="1267462159#1" to="1267462159#3"/>
    <trip id="93" depart="204.60" from="1267462159#1" to="1267462159#2"/>
    <trip id="94" depart="206.80" from="1200728225#3" to="1267462159#2"/>
    <trip id="95" depart="209.00" from="1267462159#1" to="1267462159#1"/>
    <trip id="96" depart="211.20" from="1200728225#2" to="1267462159#1"/>
    <trip id="97" depart="213.40" from="1265822568#3" to="1200728225#2"/>
    <trip id="98" depart="215.60" from="1200728225#3" to="1267462159#1"/>
    <trip id="99" depart="217.80" from="1422795954" to="1200728225#3"/>
    <trip id="100" depart="220.00" from="1265822568#1" to="1200728225#4"/>
    <trip id="101" depart="222.20" from="1422795954" to="1221994726#2"/>
    <trip id="102" depart="224.40" from="1422795954" to="1200728225#0"/>
    <trip id="103" depart="226.60" from="1422795954" to="1200728225#1"/>
    <trip id="104" depart="228.80" from="1422795954" to="1200728225#2"/>
    <trip id="105" depart="231.00" from="1200728225#0" to="1221994726#0"/>
    <trip id="106" depart="233.20" from="1265822568#2" to="1200728225#3"/>
    <trip id="107" depart="235.40" from="1265822568#1" to="1221994726#1"/>
    <trip id="108" depart="237.60" from="1200728225#4" to="1221994726#2"/>
    <trip id="109" depart="239.80" from="-1163556238#1" to="1267462159#2"/>
    <trip id="110" depart="242.00" from="1265822568#0" to="1265822568#2"/>
    <trip id="111" depart="244.20" from="1265822568#1" to="1200728225#3"/>
    <trip id="112" depart="246.40" from="1200728225#3" to="1267462159#1"/>
    <trip id="113" depart="248.60" from="1265822568#2" to="1200728225#3"/>
    <trip id="114" depart="250.80" from="1200728225#3" to="1221994726#0"/>
    <trip id="115" depart="253.00" from="1200728225#0" to="1221994726#0"/>
    <trip id="116" depart="255.20" from="1200728225#3" to="1221994726#2"/>
    <trip id="117" depart="257.40" from="1221994726#0" to="1221994726#2"/>
    <trip id="118" depart="259.60" from="1265822568#1" to="1221994726#0"/>
    <trip id="119" depart="261.80" from="1200728225#0" to="1221994726#1"/>
    <trip id="120" depart="264.00" from="1265822568#1" to="1200728225#4"/>
    <trip id="121" depart="266.20" from="1265822568#2" to="1200728225#2"/>
    <trip id="122" depart="268.40" from="1200728225#1" to="1163556238#1"/>
    <trip id="123" depart="270.60" from="1200728225#2" to="1221994726#1"/>
    <trip id="124" depart="272.80" from="1265822568#1" to="1163556238#1"/>
    <trip id="125" depart="275.00" from="1265822568#3" to="1265822568#3"/>
    <trip id="126" depart="277.20" from="1200728225#0" to="1221994726#0"/>
    <trip id="127" depart="279.40" from="1200728225#1" to="1267462159#3"/>
    <trip id="128" depart="281.60" from="1200728225#2" to="1267462159#1"/>
    <trip id="129" depart="283.80" from="1221994726#0" to="1267462159#1"/>
    <trip id="130" depart="286.00" from="1265822568#2" to="1267462159#3"/>
    <trip id="131" depart="288.20" from="1265822568#0" to="1267462159#3"/>
    <trip id="132" depart="290.40" from="1265822568#2" to="1221994726#1"/>
    <trip id="133" depart="292.60" from="1265822568#3" to="1221994726#1"/>
    <trip id="134" depart="294.80" from="1265822568#1" to="1200728225#3"/>
    <trip id="135" depart="297.00" from="1200728225#0" to="1200728225#3"/>
    <trip id="136" depart="299.20" from="1200728225#3" to="1200728225#3"/>
    <trip id="137" depart="301.40" from="1265822568#2" to="1163556238#1"/>
    <trip id="138" depart="303.60" from="1221994726#0" to="1221994726#2"/>
    <trip id="139" depart="305.80" from="1221994726#0" to="1267462159#2"/>
    <trip id="140" depart="308.00" from="1265822568#0" to="1265822568#2"/>
    <trip id="141" depart="310.20" from="1200728225#4" to="1163556238#1"/>
    <trip id="142" depart="312.40" from="1267462159#1" to="1267462159#3"/>
    <trip id="143" depart="314.60" from="1265822568#0" to="1265822568#1"/>
    <trip id="144" depart="316.80" from="1200728225#2" to="1200728225#2"/>
    <trip id="145" depart="319.00" from="1265822568#1" to="1163556238#1"/>
    <trip id="146" depart="321.20" from="1200728225#4" to="1221994726#2"/>
    <trip id="147" depart="323.40" from="1200728225#1" to="1221994726#0"/>
    <trip id="148" depart="325.60" from="1200728225#2" to="1200728225#3"/>
    <trip id="149" depart="327.80" from="1265822568#3" to="1200728225#4"/>
    <trip id="150" depart="330.00" from="1265822568#3" to="1267462159#1"/>
    <trip id="151" depart="332.20" from="-1163556238#1" to="1221994726#2"/>
    <trip id="152" depart="334.40" from="1422795954" to="1200728225#4"/>
    <trip id="153" depart="336.60" from="1265822568#1" to="1265822568#3"/>
    <trip id="154" depart="338.80" from="1265822568#1" to="1265822568#3"/>
    <trip id="155" depart="341.00" from="1422795954" to="1200728225#1"/>
    <trip id="156" depart="343.20" from="1265822568#0" to="1200728225#2"/>
    <trip id="157" depart="345.40" from="1265822568#2" to="1265822568#3"/>
    <trip id="158" depart="347.60" from="1267462159#1" to="1267462159#3"/>
    <trip id="159" depart="349.80" from="1200728225#0" to="1163556238#1"/>
    <trip id="160" depart="352.00" from="1422795954" to="1200728225#4"/>
    <trip id="161" depart="354.20" from="1200728225#0" to="1267462159#3"/>
    <trip id="162" depart="356.40" from="1265822568#3" to="1200728225#4"/>
    <trip id="163" depart="358.60" from="1267462159#1" to="1267462159#1"/>
    <trip id="164" depart="360.80" from="1200728225#0" to="1267462159#3"/>
    <trip id="165" depart="363.00" from="1265822568#1" to="1267462159#1"/>
    <trip id="166" depart="365.20" from="1265822568#2" to="1221994726#0"/>
    <trip id="167" depart="367.40" from="1265822568#3" to="1267462159#3"/>
    <trip id="168" depart="369.60" from="1200728225#3" to="1267462159#1"/>
    <trip id="169" depart="371.80" from="1265822568#0" to="1221994726#1"/>
    <trip id="170" depart="374.00" from="1200728225#3" to="1267462159#1"/>
    <trip id="171" depart="376.20" from="1200728225#4" to="1163556238#1"/>
    <trip id="172" depart="378.40" from="1200728225#4" to="1267462159#2"/>
    <trip id="173" depart="380.60" from="1265822568#2" to="1200728225#3"/>
    <trip id="174" depart="382.80" from="-1163556238#1" to="1267462159#3"/>
    <trip id="175" depart="385.00" from="1200728225#0" to="1200728225#2"/>
    <trip id="176" depart="387.20" from="1265822568#2" to="1200728225#3"/>
    <trip id="177" depart="389.40" from="1265822568#0" to="1221994726#1"/>
    <trip id="178" depart="391.60" from="1265822568#3" to="1200728225#3"/>
    <trip id="179" depart="393.80" from="1265822568#2" to="1200728225#3"/>
    <trip id="180" depart="396.00" from="1265822568#0" to="1265822568#3"/>
    <trip id="181" depart="398.20" from="1200728225#1" to="1200728225#2"/>
    <trip id="182" depart="400.40" from="1422795954" to="1221994726#1"/>
    <trip id="183" depart="402.60" from="1200728225#1" to="1200728225#2"/>
    <trip id="184" depart="404.80" from="1200728225#1" to="1163556238#1"/>
    <trip id="185" depart="407.00" from="1265822568#0" to="1200728225#3"/>
    <trip id="186" depart="409.20" from="1422795954" to="1221994726#2"/>
    <trip id="187" depart="411.40" from="1200728225#1" to="1163556238#1"/>
    <trip id="188" depart="413.60" from="1422795954" to="1221994726#1"/>
    <trip id="189" depart="415.80" from="1265822568#0" to="1200728225#3"/>
    <trip id="190" depart="418.00" from="1422795954" to="1200728225#0"/>
    <trip id="191" depart="420.20" from="1265822568#3" to="1200728225#2"/>
    <trip id="192" depart="422.40" from="1221994726#0" to="1267462159#1"/>
    <trip id="193" depart="424.60" from="1422795954" to="1200728225#3"/>
    <trip id="194" depart="426.80" from="1265822568#1" to="1265822568#1"/>
    <trip id="195" depart="429.00" from="1265822568#3" to="1267462159#3"/>
    <trip id="196" depart="431.20" from="1200728225#2" to="1200728225#2"/>
    <trip id="197" depart="433.40" from="-1163556238#1" to="1221994726#0"/>
    <trip id="198" depart="435.60" from="1265822568#0" to="1200728225#3"/>
    <trip id="199" depart="437.80" from="1265822568#2" to="1221994726#0"/>
    <trip id="200" depart="440.00" from="1265822568#2" to="1267462159#2"/>
    <trip id="201" depart="442.20" from="1265822568#1" to="1267462159#3"/>
    <trip id="202" depart="444.40" from="1221994726#0" to="1221994726#2"/>
    <trip id="203" depart="446.60" from="1265822568#1" to="1267462159#2"/>
    <trip id="204" depart="448.80" from="1200728225#1" to="1200728225#3"/>
    <trip id="205" depart="451.00" from="1265822568#3" to="1221994726#2"/>
    <trip id="206" depart="453.20" from="1265822568#2" to="1265822568#2"/>
    <trip id="207" depart="455.40" from="1422795954" to="1221994726#1"/>
    <trip id="208" depart="457.60" from="-1163556238#1" to="1221994726#0"/>
    <trip id="209" depart="459.80" from="1200728225#0" to="1267462159#3"/>
    <trip id="210" depart="462.00" from="1422795954" to="1267462159#3"/>
    <trip id="211" depart="464.20" from="1265822568#2" to="1200728225#3"/>
    <trip id="212" depart="466.40" from="1265822568#0" to="1265822568#1"/>
    <trip id="213" depart="468.60" from="1265822568#2" to="1267462159#1"/>
    <trip id="214" depart="470.80" from="1200728225#3" to="1267462159#3"/>
    <trip id="215" depart="473.00" from="1200728225#3" to="1267462159#3"/>
    <trip id="216" depart="475.20" from="1221994726#0" to="1221994726#1"/>
    <trip id="217" depart="477.40" from="1265822568#0" to="1221994726#0"/>
    <trip id="218" depart="479.60" from="1200728225#1" to="1200728225#4"/>
    <trip id="219" depart="481.80" from="1265822568#3" to="1200728225#2"/>
    <trip id="220" depart="484.00" from="1265822568#0" to="1267462159#2"/>
    <trip id="221" depart="486.20" from="1200728225#0" to="1267462159#3"/>
    <trip id="222" depart="488.40" from="1265822568#1" to="1200728225#2"/>
    <trip id="223" depart="490.60" from="1200728225#1" to="1221994726#2"/>
    <trip id="224" depart="492.80" from="1422795954" to="1267462159#2"/>
    <trip id="225" depart="495.00" from="1265822568#2" to="1221994726#1"/>
    <trip id="226" depart="497.20" from="1200728225#3" to="1267462159#1"/>
    <trip id="227" depart="499.40" from="1422795954" to="1200728225#2"/>
    <trip id="228" depart="501.60" from="1265822568#0" to="1200728225#4"/>
    <trip id="229" depart="503.80" from="1221994726#0" to="1267462159#3"/>
    <trip id="230" depart="506.00" from="1200728225#3" to="1200728225#3"/>
    <trip id="231" depart="508.20" from="1265822568#0" to="1267462159#3"/>
    <trip id="232" depart="510.40" from="1265822568#0" to="1200728225#4"/>
    <trip id="233" depart="512.60" from="1265822568#0" to="1221994726#2"/>
    <trip id="234" depart="514.80" from="1265822568#0" to="1200728225#2"/>
    <trip id="235" depart="517.00" from="1265822568#3" to="1163556238#1"/>
    <trip id="236" depart="519.20" from="1265822568#1" to="1267462159#1"/>
    <trip id="237" depart="521.40" from="1422795954" to="1221994726#1"/>
    <trip id="238" depart="523.60" from="-1163556238#1" to="1221994726#1"/>
    <trip id="239" depart="525.80" from="1265822568#0" to="1267462159#2"/>
    <trip id="240" depart="528.00" from="1265822568#2" to="1221994726#0"/>
    <trip id="241" depart="530.20" from="1265822568#1" to="1267462159#1"/>
    <trip id="242" depart="532.40" from="1267462159#1" to="1267462159#1"/>
    <trip id="243" depart="534.60" from="1265822568#2" to="1265822568#3"/>
    <trip id="244" depart="536.80" from="1267462159#2" to="1267462159#3"/>
    <trip id="245" depart="539.00" from="1265822568#3" to="1221994726#0"/>
    <trip id="246" depart="541.20" from="1265822568#2" to="1267462159#2"/>
    <trip id="247" depart="543.40" from="1200728225#3" to="1200728225#4"/>
    <trip id="248" depart="545.60" from="1200728225#1" to="1221994726#1"/>
    <trip id="249" depart="547.80" from="1265822568#0" to="1265822568#3"/>
    <trip id="250" depart="550.00" from="1200728225#2" to="1267462159#2"/>
    <trip id="251" depart="552.20" from="1200728225#1" to="1221994726#0"/>
    <trip id="252" depart="554.40" from="1200728225#2" to="1200728225#2"/>
    <trip id="253" depart="556.60" from="-1163556238#1" to="1267462159#1"/>
    <trip id="254" depart="558.80" from="1200728225#1" to="1221994726#0"/>
    <trip id="255" depart="561.00" from="1200728225#4" to="1221994726#2"/>
    <trip id="256" depart="563.20" from="1265822568#1" to="1221994726#0"/>
    <trip id="257" depart="565.40" from="1200728225#2" to="1267462159#1"/>
    <trip id="258" depart="567.60" from="1200728225#1" to="1200728225#4"/>
    <trip id="259" depart="569.80" from="1265822568#0" to="1221994726#2"/>
    <trip id="260" depart="572.00" from="1422795954" to="1200728225#3"/>
    <trip id="261" depart="574.20" from="1200728225#3" to="1221994726#2"/>
    <trip id="262" depart="576.40" from="1265822568#2" to="1265822568#3"/>
    <trip id="263" depart="578.60" from="1265822568#1" to="1200728225#4"/>
    <trip id="264" depart="580.80" from="1265822568#1" to="1265822568#1"/>
    <trip id="265" depart="583.00" from="1265822568#2" to="1265822568#2"/>
    <trip id="266" depart="585.20" from="1265822568#1" to="1267462159#1"/>
    <trip id="267" depart="587.40" from="1265822568#1" to="1267462159#2"/>
    <trip id="268" depart="589.60" from="1265822568#1" to="1200728225#3"/>
    <trip id="269" depart="591.80" from="1221994726#0" to="1221994726#2"/>
    <trip id="270" depart="594.00" from="1265822568#0" to="1267462159#3"/>
    <trip id="271" depart="596.20" from="1422795954" to="1200728225#1"/>
    <trip id="272" depart="598.40" from="1422795954" to="1267462159#1"/>
    <trip id="273" depart="600.60" from="1265822568#2" to="1267462159#3"/>
    <trip id="274" depart="602.80" from="1422795954" to="1267462159#1"/>
    <trip id="275" depart="605.00" from="-1163556238#1" to="1221994726#2"/>
    <trip id="276" depart="607.20" from="1265822568#2" to="1221994726#2"/>
    <trip id="277" depart="609.40" from="1267462159#1" to="1267462159#3"/>
    <trip id="278" depart="611.60" from="1200728225#0" to="1200728225#2"/>
    <trip id="279" depart="613.80" from="-1163556238#1" to="1267462159#2"/>
    <trip id="280" depart="616.00" from="1265822568#0" to="1267462159#2"/>
    <trip id="281" depart="618.20" from="1200728225#2" to="1163556238#1"/>
    <trip id="282" depart="620.40" from="1267462159#1" to="1267462159#2"/>
    <trip id="283" depart="622.60" from="1200728225#3" to="1221994726#0"/>
    <trip id="284" depart="624.80" from="1200728225#1" to="1267462159#3"/>
    <trip id="285" depart="627.00" from="1200728225#3" to="1221994726#1"/>
    <trip id="286" depart="629.20" from="1200728225#0" to="1267462159#2"/>
    <trip id="287" depart="631.40" from="1200728225#1" to="1221994726#0"/>
    <trip id="288" depart="633.60" from="1265822568#2" to="1265822568#3"/>
    <trip id="289" depart="635.80" from="1422795954" to="1221994726#0"/>
    <trip id="290" depart="638.00" from="1422795954" to="1163556238#1"/>
    <trip id="291" depart="640.20" from="1200728225#4" to="1221994726#0"/>
    <trip id="292" depart="642.40" from="1422795954" to="1267462159#1"/>
    <trip id="293" depart="644.60" from="1265822568#0" to="1267462159#3"/>
    <trip id="294" depart="646.80" from="1200728225#4" to="1200728225#4"/>
    <trip id="295" depart="649.00" from="1265822568#1" to="1265822568#1"/>
    <trip id="296" depart="651.20" from="1265822568#0" to="1163556238#1"/>
    <trip id="297" depart="653.40" from="1265822568#3" to="1200728225#2"/>
    <trip id="298" depart="655.60" from="1200728225#0" to="1221994726#2"/>
    <trip id="299" depart="657.80" from="1200728225#2" to="1200728225#2"/>
    <trip id="300" depart="660.00" from="1200728225#1" to="1267462159#2"/>
    <trip id="301" depart="662.20" from="-1163556238#1" to="1267462159#1"/>
    <trip id="302" depart="664.40" from="1265822568#1" to="1163556238#1"/>
    <trip id="303" depart="666.60" from="1200728225#2" to="1200728225#3"/>
    <trip id="304" depart="668.80" from="1200728225#1" to="1163556238#1"/>
    <trip id="305" depart="671.00" from="1265822568#3" to="1221994726#1"/>
    <trip id="306" depart="673.20" from="1265822568#3" to="1221994726#1"/>
    <trip id="307" depart="675.40" from="1265822568#3" to="1221994726#1"/>
    <trip id="308" depart="677.60" from="1200728225#0" to="1221994726#1"/>
    <trip id="309" depart="679.80" from="1422795954" to="1163556238#1"/>
    <trip id="310" depart="682.00" from="1265822568#3" to="1267462159#2"/>
    <trip id="311" depart="684.20" from="1422795954" to="1163556238#1"/>
    <trip id="312" depart="686.40" from="1265822568#2" to="1221994726#1"/>
    <trip id="313" depart="688.60" from="1265822568#1" to="1221994726#2"/>
    <trip id="314" depart="690.80" from="1200728225#3" to="1267462159#3"/>
    <trip id="315" depart="693.00" from="1265822568#2" to="1267462159#1"/>
    <trip id="316" depart="695.20" from="1265822568#1" to="1265822568#3"/>
    <trip id="317" depart="697.40" from="1265822568#2" to="1200728225#2"/>
    <trip id="318" depart="699.60" from="1200728225#4" to="1221994726#0"/>
    <trip id="319" depart="701.80" from="1265822568#0" to="1221994726#2"/>
    <trip id="320" depart="704.00" from="1265822568#3" to="1267462159#2"/>
    <trip id="321" depart="706.20" from="1265822568#2" to="1267462159#3"/>
    <trip id="322" depart="708.40" from="1265822568#1" to="1200728225#4"/>
    <trip id="323" depart="710.60" from="1265822568#0" to="1200728225#2"/>
    <trip id="324" depart="712.80" from="1265822568#1" to="1200728225#2"/>
    <trip id="325" depart="715.00" from="1200728225#0" to="1267462159#1"/>
    <trip id="326" depart="717.20" from="1265822568#0" to="1267462159#1"/>
    <trip id="327" depart="719.40" from="1267462159#1" to="1267462159#3"/>
    <trip id="328" depart="721.60" from="1265822568#1" to="1163556238#1"/>
    <trip id="329" depart="723.80" from="1265822568#2" to="1200728225#3"/>
    <trip id="330" depart="726.00" from="1200728225#4" to="1163556238#1"/>
    <trip id="331" depart="728.20" from="1265822568#1" to="1163556238#1"/>
    <trip id="332" depart="730.40" from="1265822568#3" to="1200728225#2"/>
    <trip id="333" depart="732.60" from="1265822568#3" to="1221994726#2"/>
    <trip id="334" depart="734.80" from="1200728225#0" to="1163556238#1"/>
    <trip id="335" depart="737.00" from="1265822568#2" to="1200728225#3"/>
    <trip id="336" depart="739.20" from="1265822568#1" to="1221994726#1"/>
    <trip id="337" depart="741.40" from="1265822568#2" to="1221994726#1"/>
    <trip id="338" depart="743.60" from="1265822568#2" to="1163556238#1"/>
    <trip id="339" depart="745.80" from="1200728225#4" to="1221994726#2"/>
    <trip id="340" depart="748.00" from="1200728225#2" to="1200728225#3"/>
    <trip id="341" depart="750.20" from="1200728225#1" to="1200728225#4"/>
    <trip id="342" depart="752.40" from="1265822568#2" to="1221994726#1"/>
    <trip id="343" depart="754.60" from="1267462159#1" to="1267462159#1"/>
    <trip id="344" depart="756.80" from="1200728225#0" to="1267462159#1"/>
    <trip id="345" depart="759.00" from="-1163556238#1" to="1163556238#1"/>
    <trip id="346" depart="761.20" from="1265822568#0" to="1221994726#2"/>
    <trip id="347" depart="763.40" from="1265822568#2" to="1221994726#0"/>
    <trip id="348" depart="765.60" from="1200728225#0" to="1163556238#1"/>
    <trip id="349" depart="767.80" from="1200728225#3" to="1267462159#1"/>
    <trip id="350" depart="770.00" from="1265822568#1" to="1267462159#1"/>
    <trip id="351" depart="772.20" from="1265822568#0" to="1221994726#1"/>
    <trip id="352" depart="774.40" from="1200728225#1" to="1221994726#1"/>
    <trip id="353" depart="776.60" from="1200728225#0" to="1221994726#1"/>
    <trip id="354" depart="778.80" from="1265822568#2" to="1267462159#1"/>
    <trip id="355" depart="781.00" from="1200728225#1" to="1200728225#1"/>
    <trip id="356" depart="783.20" from="1265822568#1" to="1265822568#3"/>
    <trip id="357" depart="785.40" from="1265822568#3" to="1221994726#1"/>
    <trip id="358" depart="787.60" from="1265822568#3" to="1265822568#3"/>
    <trip id="359" depart="789.80" from="1221994726#0" to="1267462159#2"/>
    <trip id="360" depart="792.00" from="1265822568#0" to="1265822568#1"/>
    <trip id="361" depart="794.20" from="1265822568#1" to="1267462159#1"/>
    <trip id="362" depart="796.40" from="1200728225#0" to="1221994726#0"/>
    <trip id="363" depart="798.60" from="1200728225#3" to="1200728225#3"/>
    <trip id="364" depart="800.80" from="-1163556238#1" to="1221994726#1"/>
    <trip id="365" depart="803.00" from="1200728225#3" to="1221994726#0"/>
    <trip id="366" depart="805.20" from="-1163556238#1" to="1267462159#1"/>
    <trip id="367" depart="807.40" from="1200728225#0" to="1267462159#1"/>
    <trip id="368" depart="809.60" from="1265822568#0" to="1265822568#3"/>
    <trip id="369" depart="811.80" from="1200728225#3" to="1221994726#1"/>
    <trip id="370" depart="814.00" from="1200728225#1" to="1163556238#1"/>
    <trip id="371" depart="816.20" from="1200728225#0" to="1267462159#2"/>
    <trip id="372" depart="818.40" from="1200728225#2" to="1221994726#0"/>
    <trip id="373" depart="820.60" from="1221994726#0" to="1221994726#1"/>
    <trip id="374" depart="822.80" from="1200728225#1" to="1200728225#4"/>
    <trip id="375" depart="825.00" from="1200728225#3" to="1221994726#0"/>
    <trip id="376" depart="827.20" from="1200728225#4" to="1221994726#2"/>
    <trip id="377" depart="829.40" from="1265822568#2" to="1200728225#3"/>
    <trip id="378" depart="831.60" from="1267462159#2" to="1267462159#2"/>
    <trip id="379" depart="833.80" from="1200728225#4" to="1221994726#2"/>
    <trip id="380" depart="836.00" from="1200728225#1" to="1200728225#4"/>
    <trip id="381" depart="838.20" from="1200728225#4" to="1221994726#2"/>
    <trip id="382" depart="840.40" from="1422795954" to="1200728225#3"/>
    <trip id="383" depart="842.60" from="1265822568#2" to="1221994726#1"/>
    <trip id="384" depart="844.80" from="1265822568#1" to="1221994726#0"/>
    <trip id="385" depart="847.00" from="1200728225#4" to="1200728225#4"/>
    <trip id="386" depart="849.20" from="1200728225#1" to="1200728225#2"/>
    <trip id="387" depart="851.40" from="1422795954" to="1221994726#1"/>
    <trip id="388" depart="853.60" from="1200728225#0" to="1267462159#1"/>
    <trip id="389" depart="855.80" from="1267462159#1" to="1267462159#2"/>
    <trip id="390" depart="858.00" from="1221994726#0" to="1221994726#0"/>
    <trip id="391" depart="860.20" from="1265822568#2" to="1200728225#2"/>
    <trip id="392" depart="862.40" from="1265822568#3" to="1221994726#0"/>
    <trip id="393" depart="864.60" from="1265822568#0" to="1200728225#3"/>
    <trip id="394" depart="866.80" from="1422795954" to="1267462159#3"/>
    <trip id="395" depart="869.00" from="1200728225#4" to="1221994726#1"/>