<?xml version="1.0" encoding="UTF-8"?>

<!-- generated on 2025-10-27 20:08:09 by Eclipse SUMO netedit Version 1.24.0
<neteditConfiguration xmlns:xsi="http://www.w3.org/2001/XMLSchema-instance" xsi:noNamespaceSchemaLocation="http://sumo.dlr.de/xsd/neteditConfiguration.xsd">

    <input>
        <sumo-net-file value="C:\Users\DELL\Downloads\lvd_map.net.xml"/>
    </input>

    <output>
        <output-file value="C:\Users\DELL\Downloads\lvd_map.net.xml"/>
    </output>

    <processing>
        <geometry.min-radius.fix.railways value="false"/>
        <geometry.avoid-overlap value="false"/>
        <geometry.max-grade.fix value="false"/>
        <offset.disable-normalization value="true"/>
        <lefthand value="0"/>
    </processing>

    <junctions>
        <no-turnarounds value="true"/>
        <junctions.corner-detail value="5"/>
        <junctions.limit-turn-speed value="5.50"/>
        <rectangular-lane-cut value="0"/>
    </junctions>

    <pedestrian>
        <walkingareas value="0"/>
    </pedestrian>

</neteditConfiguration>
-->

<net version="1.20" junctionCornerDetail="5" limitTurnSpeed="5.50" avoidOverlap="0" xmlns:xsi="http://www.w3.org/2001/XMLSchema-instance" xsi:noNamespaceSchemaLocation="http://sumo.dlr.de/xsd/net_file.xsd">

    <location netOffset="-685029.37,-1194453.29" convBoundary="0.00,0.00,798.62,412.82" origBoundary="106.692384,10.800661,106.699687,10.804402" projParameter="+proj=utm +zone=48 +ellps=WGS84 +datum=WGS84 +units=m +no_defs"/>

    <type id="highway.footway" priority="1" numLanes="1" speed="2.78" allow="pedestrian" oneway="1" width="2.00"/>
    <type id="highway.primary" priority="12" numLanes="2" speed="27.78" disallow="tram rail_urban rail rail_electric rail_fast ship container cable_car subway aircraft wheelchair scooter drone" oneway="0"/>
    <type id="highway.primary_link" priority="7" numLanes="1" speed="22.22" disallow="tram rail_urban rail rail_electric rail_fast ship container cable_car subway aircraft wheelchair scooter drone" oneway="0"/>
    <type id="highway.secondary" priority="11" numLanes="1" speed="27.78" disallow="tram rail_urban rail rail_electric rail_fast ship container cable_car subway aircraft wheelchair scooter drone" oneway="0"/>
    <type id="highway.tertiary" priority="10" numLanes="1" speed="22.22" disallow="tram rail_urban rail rail_electric rail_fast ship container cable_car subway aircraft wheelchair scooter drone" oneway="0"/>

    <edge id=":11758401312_0" function="internal">
        <lane id=":11758401312_0_0" index="0" disallow="tram rail_urban rail rail_electric rail_fast ship container cable_car subway aircraft wheelchair scooter drone" speed="9.37" length="8.10" shape="280.72,304.72 280.46,302.64 279.76,301.33 278.61,300.20 277.00,298.68"/>
        <lane id=":11758401312_0_1" index="1" disallow="tram rail_urban rail rail_electric rail_fast ship container cable_car subway aircraft wheelchair scooter drone" speed="10.15" length="8.10" shape="280.72,304.72 280.88,302.09 281.08,300.15 280.74,298.44 279.30,296.46"/>
    </edge>
    <edge id=":11758401312_2" function="internal">
        <lane id=":11758401312_2_0" index="0" disallow="tram rail_urban rail rail_electric rail_fast ship container cable_car subway aircraft wheelchair scooter drone" speed="3.65" length="1.44" shape="280.72,304.72 281.51,303.51"/>
    </edge>
    <edge id=":11758401312_5" function="internal">
        <lane id=":11758401312_5_0" index="0" disallow="tram rail_urban rail rail_electric rail_fast ship container cable_car subway aircraft wheelchair scooter drone" speed="3.65" length="3.23" shape="281.51,303.51 282.30,303.10 283.10,303.49 283.92,304.67"/>
    </edge>
    <edge id=":11758401312_3" function="internal">
        <lane id=":11758401312_3_0" index="0" disallow="tram rail_urban rail rail_electric rail_fast ship container cable_car subway aircraft wheelchair scooter drone" speed="13.37" length="7.90" shape="286.52,297.38 285.33,299.41 284.51,300.85 284.05,302.38 283.92,304.67"/>
    </edge>
    <edge id=":11758401312_4" function="internal">
        <lane id=":11758401312_4_0" index="0" disallow="tram rail_urban rail rail_electric rail_fast ship container cable_car subway aircraft wheelchair scooter drone" speed="4.82" length="2.16" shape="283.71,295.86 282.76,297.14 282.26,297.39"/>
    </edge>
    <edge id=":11758401312_6" function="internal">
        <lane id=":11758401312_6_0" index="0" disallow="tram rail_urban rail rail_electric rail_fast ship container cable_car subway aircraft wheelchair scooter drone" speed="4.82" length="3.38" shape="282.26,297.39 281.71,297.67 280.56,297.44 279.30,296.46"/>
    </edge>
    <edge id=":12320750669_0" function="internal">
        <lane id=":12320750669_0_0" index="0" disallow="tram rail_urban rail rail_electric rail_fast ship container cable_car subway aircraft wheelchair scooter drone" speed="27.78" length="0.30" shape="246.31,233.36 246.61,233.32"/>
        <lane id=":12320750669_0_1" index="1" disallow="tram rail_urban rail rail_electric rail_fast ship container cable_car subway aircraft wheelchair scooter drone" speed="27.78" length="0.30" shape="246.75,236.53 247.05,236.49"/>
        <lane id=":12320750669_0_2" index="2" disallow="tram rail_urban rail rail_electric rail_fast ship container cable_car subway aircraft wheelchair scooter drone" speed="27.78" length="0.30" shape="247.19,239.70 247.49,239.66"/>
    </edge>
    <edge id=":12320750670_0" function="internal">
        <lane id=":12320750670_0_0" index="0" disallow="tram rail_urban rail rail_electric rail_fast ship container cable_car subway aircraft wheelchair scooter drone" speed="27.78" length="0.28" shape="305.57,242.49 305.32,242.52"/>
        <lane id=":12320750670_0_1" index="1" disallow="tram rail_urban rail rail_electric rail_fast ship container cable_car subway aircraft wheelchair scooter drone" speed="27.78" length="0.28" shape="305.17,239.32 304.86,239.36"/>
    </edge>
    <edge id=":12965757771_0" function="internal">
        <lane id=":12965757771_0_0" index="0" disallow="tram rail_urban rail rail_electric rail_fast ship container cable_car subway aircraft wheelchair scooter drone" speed="27.78" length="0.30" shape="528.60,216.60 528.31,216.63"/>
        <lane id=":12965757771_0_1" index="1" disallow="tram rail_urban rail rail_electric rail_fast ship container cable_car subway aircraft wheelchair scooter drone" speed="27.78" length="0.30" shape="528.28,213.41 527.97,213.44"/>
    </edge>
    <edge id=":12965757775_0" function="internal">
        <lane id=":12965757775_0_0" index="0" disallow="tram rail_urban rail rail_electric rail_fast ship container cable_car subway aircraft wheelchair scooter drone" speed="27.78" length="0.27" shape="481.80,221.59 481.46,221.62"/>
        <lane id=":12965757775_0_1" index="1" disallow="tram rail_urban rail rail_electric rail_fast ship container cable_car subway aircraft wheelchair scooter drone" speed="27.78" length="0.27" shape="481.46,218.40 481.27,218.42"/>
    </edge>
    <edge id=":1671468573_0" function="internal">
        <lane id=":1671468573_0_0" index="0" disallow="tram rail_urban rail rail_electric rail_fast ship container cable_car subway aircraft wheelchair scooter drone" speed="27.78" length="0.30" shape="400.22,213.28 400.50,213.24"/>
        <lane id=":1671468573_0_1" index="1" disallow="tram rail_urban rail rail_electric rail_fast ship container cable_car subway aircraft wheelchair scooter drone" speed="27.78" length="0.30" shape="400.63,216.45 400.93,216.41"/>
        <lane id=":1671468573_0_2" index="2" disallow="tram rail_urban rail rail_electric rail_fast ship container cable_car subway aircraft wheelchair scooter drone" speed="27.78" length="0.30" shape="401.05,219.62 401.36,219.58"/>
    </edge>
    <edge id=":2351201568_0" function="internal">
        <lane id=":2351201568_0_0" index="0" disallow="tram rail_urban rail rail_electric rail_fast ship container cable_car subway aircraft wheelchair scooter drone" speed="12.74" length="13.82" shape="659.38,252.49 659.96,248.27 659.74,245.05 658.78,242.25 657.16,239.30"/>
    </edge>
    <edge id=":2351201568_1" function="internal">
        <lane id=":2351201568_1_0" index="0" disallow="tram rail_urban rail rail_electric rail_fast ship container cable_car subway aircraft wheelchair scooter drone" speed="27.78" length="13.80" shape="659.38,252.49 662.66,239.02"/>
        <lane id=":2351201568_1_1" index="1" disallow="tram rail_urban rail rail_electric rail_fast ship container cable_car subway aircraft wheelchair scooter drone" speed="27.78" length="13.80" shape="662.51,253.13 665.76,239.79"/>
    </edge>
    <edge id=":366387686_0" function="internal">
        <lane id=":366387686_0_0" index="0" disallow="tram rail_urban rail rail_electric rail_fast ship container cable_car subway aircraft wheelchair scooter drone" speed="27.78" length="0.30" shape="651.08,325.94 651.02,326.23"/>
    </edge>
    <edge id=":366387686_1" function="internal">
        <lane id=":366387686_1_0" index="0" disallow="tram rail_urban rail rail_electric rail_fast ship container cable_car subway aircraft wheelchair scooter drone" speed="27.78" length="0.30" shape="647.88,325.61 647.94,325.31"/>
    </edge>
    <edge id=":366433635_0" function="internal">
        <lane id=":366433635_0_0" index="0" disallow="tram rail_urban rail rail_electric rail_fast ship container cable_car subway aircraft wheelchair scooter drone" speed="11.30" length="5.92" shape="664.06,271.15 662.86,272.44 662.03,273.36 661.46,274.41 661.01,276.07"/>
    </edge>
    <edge id=":366433635_1" function="internal">
        <lane id=":366433635_1_0" index="0" disallow="tram rail_urban rail rail_electric rail_fast ship container cable_car subway aircraft wheelchair scooter drone" speed="4.66" length="2.39" shape="664.06,271.15 662.55,272.50 662.20,272.58"/>
    </edge>
    <edge id=":366433635_5" function="internal">
        <lane id=":366433635_5_0" index="0" disallow="tram rail_urban rail rail_electric rail_fast ship container cable_car subway aircraft wheelchair scooter drone" speed="4.66" length="4.04" shape="662.20,272.58 661.39,272.74 660.58,271.88 660.11,269.91"/>
    </edge>
    <edge id=":366433635_2" function="internal">
        <lane id=":366433635_2_0" index="0" disallow="tram rail_urban rail rail_electric rail_fast ship container cable_car subway aircraft wheelchair scooter drone" speed="23.75" length="5.72" shape="657.87,275.45 657.98,273.92 657.71,272.88 657.28,271.83 656.93,270.29"/>
        <lane id=":366433635_2_1" index="1" disallow="tram rail_urban rail rail_electric rail_fast ship container cable_car subway aircraft wheelchair scooter drone" speed="25.45" length="5.72" shape="657.87,275.45 658.52,273.77 659.34,272.69 659.99,271.62 660.11,269.91"/>
    </edge>
    <edge id=":366433635_4" function="internal">
        <lane id=":366433635_4_0" index="0" disallow="tram rail_urban rail rail_electric rail_fast ship container cable_car subway aircraft wheelchair scooter drone" speed="3.65" length="1.44" shape="657.87,275.45 658.89,274.43"/>
    </edge>
    <edge id=":366433635_6" function="internal">
        <lane id=":366433635_6_0" index="0" disallow="tram rail_urban rail rail_electric rail_fast ship container cable_car subway aircraft wheelchair scooter drone" speed="3.65" length="3.23" shape="658.89,274.43 659.75,274.19 660.46,274.74 661.01,276.07"/>
    </edge>
    <edge id=":366458024_0" function="internal">
        <lane id=":366458024_0_0" index="0" disallow="tram rail_urban rail rail_electric rail_fast ship container cable_car subway aircraft wheelchair scooter drone" speed="3.65" length="4.67" shape="285.99,412.78 285.22,414.00 284.43,414.42 283.62,414.04 282.79,412.86"/>
    </edge>
    <edge id=":366458462_0" function="internal">
        <lane id=":366458462_0_0" index="0" disallow="tram rail_urban rail rail_electric rail_fast ship container cable_car subway aircraft wheelchair scooter drone" speed="3.65" length="4.67" shape="641.75,373.04 640.73,374.06 639.87,374.30 639.16,373.75 638.61,372.42"/>
    </edge>
    <edge id=":4989081990_0" function="internal">
        <lane id=":4989081990_0_0" index="0" disallow="tram rail_urban rail rail_electric rail_fast ship container cable_car subway aircraft wheelchair scooter drone" speed="16.26" length="17.78" shape="631.44,215.36 628.43,212.96 625.35,210.23 621.48,208.15 616.08,207.68"/>
    </edge>
    <edge id=":4989081990_1" function="internal">
        <lane id=":4989081990_1_0" index="0" disallow="tram rail_urban rail rail_electric rail_fast ship container cable_car subway aircraft wheelchair scooter drone" speed="18.65" length="18.21" shape="632.71,212.27 628.03,209.87 624.69,208.26 621.20,207.51 616.08,207.68"/>
        <lane id=":4989081990_1_1" index="1" disallow="tram rail_urban rail rail_electric rail_fast ship container cable_car subway aircraft wheelchair scooter drone" speed="19.21" length="18.21" shape="633.49,209.10 628.51,206.59 624.94,204.98 621.21,204.27 615.75,204.49"/>
    </edge>
    <edge id=":4989081995_0" function="internal">
        <lane id=":4989081995_0_0" index="0" disallow="tram rail_urban rail rail_electric rail_fast ship container cable_car subway aircraft wheelchair scooter drone" speed="27.78" length="0.29" shape="500.52,201.04 500.78,201.01"/>
        <lane id=":4989081995_0_1" index="1" disallow="tram rail_urban rail rail_electric rail_fast ship container cable_car subway aircraft wheelchair scooter drone" speed="27.78" length="0.29" shape="500.82,204.22 501.12,204.19"/>
        <lane id=":4989081995_0_2" index="2" disallow="tram rail_urban rail rail_electric rail_fast ship container cable_car subway aircraft wheelchair scooter drone" speed="27.78" length="0.29" shape="501.13,207.41 501.46,207.38"/>
    </edge>
    <edge id=":4989082001_0" function="internal">
        <lane id=":4989082001_0_0" index="0" disallow="tram rail_urban rail rail_electric rail_fast ship container cable_car subway aircraft wheelchair scooter drone" speed="27.78" length="1.02" shape="612.60,191.08 613.10,191.06 613.44,191.06 613.78,191.10 614.28,191.18"/>
        <lane id=":4989082001_0_1" index="1" disallow="tram rail_urban rail rail_electric rail_fast ship container cable_car subway aircraft wheelchair scooter drone" speed="27.78" length="1.02" shape="612.74,194.27 613.04,194.26 613.25,194.26 613.45,194.29 613.75,194.33"/>
        <lane id=":4989082001_0_2" index="2" disallow="tram rail_urban rail rail_electric rail_fast ship container cable_car subway aircraft wheelchair scooter drone" speed="27.78" length="1.02" shape="612.89,197.47 612.99,197.47 613.06,197.47 613.13,197.47 613.22,197.49"/>
    </edge>
    <edge id=":5764779769_0" function="internal">
        <lane id=":5764779769_0_0" index="0" disallow="tram rail_urban rail rail_electric rail_fast ship container cable_car subway aircraft wheelchair scooter drone" speed="27.78" length="0.30" shape="341.24,238.04 340.95,238.08"/>
        <lane id=":5764779769_0_1" index="1" disallow="tram rail_urban rail rail_electric rail_fast ship container cable_car subway aircraft wheelchair scooter drone" speed="27.78" length="0.30" shape="340.85,234.86 340.55,234.90"/>
    </edge>
    <edge id=":5764779794_0" function="internal">
        <lane id=":5764779794_0_0" index="0" disallow="tram rail_urban rail rail_electric rail_fast ship container cable_car subway aircraft wheelchair scooter drone" speed="27.78" length="0.30" shape="426.28,227.44 425.98,227.48"/>
        <lane id=":5764779794_0_1" index="1" disallow="tram rail_urban rail rail_electric rail_fast ship container cable_car subway aircraft wheelchair scooter drone" speed="27.78" length="0.30" shape="425.88,224.26 425.58,224.30"/>
    </edge>
    <edge id=":5767156750_0" function="internal">
        <lane id=":5767156750_0_0" index="0" disallow="tram rail_urban rail rail_electric rail_fast ship container cable_car subway aircraft wheelchair scooter drone" speed="22.22" length="0.25" shape="715.25,134.45 715.17,134.69"/>
    </edge>
    <edge id=":5767300386_0" function="internal">
        <lane id=":5767300386_0_0" index="0" disallow="tram rail_urban rail rail_electric rail_fast ship container cable_car subway aircraft wheelchair scooter drone" speed="27.78" length="0.30" shape="717.09,230.32 717.37,230.44"/>
        <lane id=":5767300386_0_1" index="1" disallow="tram rail_urban rail rail_electric rail_fast ship container cable_car subway aircraft wheelchair scooter drone" speed="27.78" length="0.30" shape="715.80,233.25 716.08,233.37"/>
        <lane id=":5767300386_0_2" index="2" disallow="tram rail_urban rail rail_electric rail_fast ship container cable_car subway aircraft wheelchair scooter drone" speed="27.78" length="0.30" shape="714.52,236.18 714.78,236.30"/>
    </edge>
    <edge id=":5773400802_0" function="internal">
        <lane id=":5773400802_0_0" index="0" disallow="tram rail_urban rail rail_electric rail_fast ship container cable_car subway aircraft wheelchair scooter drone" speed="27.78" length="0.31" shape="281.44,351.69 281.44,351.39"/>
    </edge>
    <edge id=":5773400802_1" function="internal">
        <lane id=":5773400802_1_0" index="0" disallow="tram rail_urban rail rail_electric rail_fast ship container cable_car subway aircraft wheelchair scooter drone" speed="3.65" length="2.34" shape="281.44,351.69 282.22,350.48 283.01,350.06"/>
    </edge>
    <edge id=":5773400802_4" function="internal">
        <lane id=":5773400802_4_0" index="0" disallow="tram rail_urban rail rail_electric rail_fast ship container cable_car subway aircraft wheelchair scooter drone" speed="3.65" length="2.34" shape="283.01,350.06 283.82,350.44 284.64,351.62"/>
    </edge>
    <edge id=":5773400802_2" function="internal">
        <lane id=":5773400802_2_0" index="0" disallow="tram rail_urban rail rail_electric rail_fast ship container cable_car subway aircraft wheelchair scooter drone" speed="27.78" length="0.29" shape="284.64,351.34 284.64,351.62"/>
    </edge>
    <edge id=":5773400802_3" function="internal">
        <lane id=":5773400802_3_0" index="0" disallow="tram rail_urban rail rail_electric rail_fast ship container cable_car subway aircraft wheelchair scooter drone" speed="3.65" length="2.34" shape="284.64,351.34 283.86,352.55 283.06,352.96"/>
    </edge>
    <edge id=":5773400802_5" function="internal">
        <lane id=":5773400802_5_0" index="0" disallow="tram rail_urban rail rail_electric rail_fast ship container cable_car subway aircraft wheelchair scooter drone" speed="3.65" length="2.34" shape="283.06,352.96 282.26,352.57 281.44,351.39"/>
    </edge>
    <edge id=":5773400806_0" function="internal">
        <lane id=":5773400806_0_0" index="0" disallow="tram rail_urban rail rail_electric rail_fast ship container cable_car subway aircraft wheelchair scooter drone" speed="27.78" length="0.30" shape="717.50,252.05 717.25,251.95"/>
        <lane id=":5773400806_0_1" index="1" disallow="tram rail_urban rail rail_electric rail_fast ship container cable_car subway aircraft wheelchair scooter drone" speed="27.78" length="0.30" shape="718.76,249.11 718.48,248.99"/>
        <lane id=":5773400806_0_2" index="2" disallow="tram rail_urban rail rail_electric rail_fast ship container cable_car subway aircraft wheelchair scooter drone" speed="27.78" length="0.30" shape="720.02,246.17 719.72,246.04"/>
    </edge>
    <edge id=":cluster_12310895539_12310895540_12310895542_12310895543_#3more_0" function="internal">
        <lane id=":cluster_12310895539_12310895540_12310895542_12310895543_#3more_0_0" index="0" disallow="tram rail_urban rail rail_electric rail_fast ship container cable_car subway aircraft wheelchair scooter drone" speed="7.07" length="11.74" shape="684.27,238.16 680.50,236.98 677.58,236.93 675.50,238.01 674.26,240.22"/>
    </edge>
    <edge id=":cluster_12310895539_12310895540_12310895542_12310895543_#3more_1" function="internal">
        <lane id=":cluster_12310895539_12310895540_12310895542_12310895543_#3more_1_0" index="0" disallow="tram rail_urban rail rail_electric rail_fast ship container cable_car subway aircraft wheelchair scooter drone" speed="27.78" length="26.76" shape="684.27,238.16 676.63,234.61 671.21,231.52 666.41,228.59 660.65,225.53"/>
        <lane id=":cluster_12310895539_12310895540_12310895542_12310895543_#3more_1_1" index="1" disallow="tram rail_urban rail rail_electric rail_fast ship container cable_car subway aircraft wheelchair scooter drone" speed="27.78" length="26.76" shape="685.55,235.23 677.95,231.70 672.56,228.61 667.77,225.69 662.02,222.64"/>
    </edge>
    <edge id=":cluster_12310895539_12310895540_12310895542_12310895543_#3more_3" function="internal">
        <lane id=":cluster_12310895539_12310895540_12310895542_12310895543_#3more_3_0" index="0" disallow="tram rail_urban rail rail_electric rail_fast ship container cable_car subway aircraft wheelchair scooter drone" speed="5.07" length="7.65" shape="686.84,232.30 685.00,229.42 684.89,227.31 686.52,225.95"/>
    </edge>
    <edge id=":cluster_12310895539_12310895540_12310895542_12310895543_#3more_16" function="internal">
        <lane id=":cluster_12310895539_12310895540_12310895542_12310895543_#3more_16_0" index="0" disallow="tram rail_urban rail rail_electric rail_fast ship container cable_car subway aircraft wheelchair scooter drone" speed="5.07" length="3.42" shape="686.52,225.95 689.89,225.36"/>
    </edge>
    <edge id=":cluster_12310895539_12310895540_12310895542_12310895543_#3more_4" function="internal">
        <lane id=":cluster_12310895539_12310895540_12310895542_12310895543_#3more_4_0" index="0" disallow="tram rail_urban rail rail_electric rail_fast ship container cable_car subway aircraft wheelchair scooter drone" speed="6.60" length="9.03" shape="690.18,211.82 689.49,214.44 689.63,216.59 690.63,218.28 692.46,219.50"/>
    </edge>
    <edge id=":cluster_12310895539_12310895540_12310895542_12310895543_#3more_5" function="internal">
        <lane id=":cluster_12310895539_12310895540_12310895542_12310895543_#3more_5_0" index="0" disallow="tram rail_urban rail rail_electric rail_fast ship container cable_car subway aircraft wheelchair scooter drone" speed="25.00" length="32.57" shape="690.18,211.82 687.12,217.55 682.07,225.96 677.09,234.41 674.26,240.22"/>
    </edge>
    <edge id=":cluster_12310895539_12310895540_12310895542_12310895543_#3more_6" function="internal">
        <lane id=":cluster_12310895539_12310895540_12310895542_12310895543_#3more_6_0" index="0" disallow="tram rail_urban rail rail_electric rail_fast ship container cable_car subway aircraft wheelchair scooter drone" speed="11.54" length="28.94" shape="690.18,211.82 685.54,217.54 677.89,221.76 669.35,223.72 665.32,223.13"/>
    </edge>
    <edge id=":cluster_12310895539_12310895540_12310895542_12310895543_#3more_17" function="internal">
        <lane id=":cluster_12310895539_12310895540_12310895542_12310895543_#3more_17_0" index="0" disallow="tram rail_urban rail rail_electric rail_fast ship container cable_car subway aircraft wheelchair scooter drone" speed="11.54" length="3.34" shape="665.32,223.13 662.02,222.64"/>
    </edge>
    <edge id=":cluster_12310895539_12310895540_12310895542_12310895543_#3more_7" function="internal">
        <lane id=":cluster_12310895539_12310895540_12310895542_12310895543_#3more_7_0" index="0" disallow="tram rail_urban rail rail_electric rail_fast ship container cable_car subway aircraft wheelchair scooter drone" speed="27.78" length="26.27" shape="668.46,209.06 692.46,219.50"/>
        <lane id=":cluster_12310895539_12310895540_12310895542_12310895543_#3more_7_1" index="1" disallow="tram rail_urban rail rail_electric rail_fast ship container cable_car subway aircraft wheelchair scooter drone" speed="27.78" length="26.27" shape="667.09,211.95 691.18,222.43"/>
        <lane id=":cluster_12310895539_12310895540_12310895542_12310895543_#3more_7_2" index="2" disallow="tram rail_urban rail rail_electric rail_fast ship container cable_car subway aircraft wheelchair scooter drone" speed="27.78" length="26.27" shape="665.72,214.85 689.89,225.36"/>
    </edge>
    <edge id=":cluster_12310895539_12310895540_12310895542_12310895543_#3more_10" function="internal">
        <lane id=":cluster_12310895539_12310895540_12310895542_12310895543_#3more_10_0" index="0" disallow="tram rail_urban rail rail_electric rail_fast ship container cable_car subway aircraft wheelchair scooter drone" speed="12.03" length="16.10" shape="665.72,214.85 671.53,218.90 674.89,224.49 675.21,226.96"/>
    </edge>
    <edge id=":cluster_12310895539_12310895540_12310895542_12310895543_#3more_11" function="internal">
        <lane id=":cluster_12310895539_12310895540_12310895542_12310895543_#3more_11_0" index="0" disallow="tram rail_urban rail rail_electric rail_fast ship container cable_car subway aircraft wheelchair scooter drone" speed="5.34" length="9.26" shape="665.72,214.85 667.71,218.18 667.76,220.59 665.87,222.08 665.32,222.16"/>
    </edge>
    <edge id=":cluster_12310895539_12310895540_12310895542_12310895543_#3more_18" function="internal">
        <lane id=":cluster_12310895539_12310895540_12310895542_12310895543_#3more_18_0" index="0" disallow="tram rail_urban rail rail_electric rail_fast ship container cable_car subway aircraft wheelchair scooter drone" speed="12.03" length="13.43" shape="675.21,226.96 675.80,231.59 674.26,240.22"/>
    </edge>
    <edge id=":cluster_12310895539_12310895540_12310895542_12310895543_#3more_19" function="internal">
        <lane id=":cluster_12310895539_12310895540_12310895542_12310895543_#3more_19_0" index="0" disallow="tram rail_urban rail rail_electric rail_fast ship container cable_car subway aircraft wheelchair scooter drone" speed="5.34" length="3.33" shape="665.32,222.16 662.02,222.64"/>
    </edge>
    <edge id=":cluster_12310895539_12310895540_12310895542_12310895543_#3more_12" function="internal">
        <lane id=":cluster_12310895539_12310895540_12310895542_12310895543_#3more_12_0" index="0" disallow="tram rail_urban rail rail_electric rail_fast ship container cable_car subway aircraft wheelchair scooter drone" speed="8.19" length="12.64" shape="663.17,236.94 663.87,232.80 663.68,229.52 662.60,227.10 660.65,225.53"/>
        <lane id=":cluster_12310895539_12310895540_12310895542_12310895543_#3more_12_1" index="1" disallow="tram rail_urban rail rail_electric rail_fast ship container cable_car subway aircraft wheelchair scooter drone" speed="9.46" length="17.18" shape="666.24,237.85 667.08,232.47 666.65,228.14 664.97,224.86 662.02,222.64"/>
    </edge>
    <edge id=":cluster_12310895539_12310895540_12310895542_12310895543_#3more_14" function="internal">
        <lane id=":cluster_12310895539_12310895540_12310895542_12310895543_#3more_14_0" index="0" disallow="tram rail_urban rail rail_electric rail_fast ship container cable_car subway aircraft wheelchair scooter drone" speed="10.64" length="19.69" shape="666.24,237.85 669.70,231.76 675.82,227.03 680.51,225.45"/>
    </edge>
    <edge id=":cluster_12310895539_12310895540_12310895542_12310895543_#3more_15" function="internal">
        <lane id=":cluster_12310895539_12310895540_12310895542_12310895543_#3more_15_0" index="0" disallow="tram rail_urban rail rail_electric rail_fast ship container cable_car subway aircraft wheelchair scooter drone" speed="5.30" length="8.97" shape="666.24,237.85 669.14,235.43 671.44,235.02 673.15,236.62 673.30,237.13"/>
    </edge>
    <edge id=":cluster_12310895539_12310895540_12310895542_12310895543_#3more_20" function="internal">
        <lane id=":cluster_12310895539_12310895540_12310895542_12310895543_#3more_20_0" index="0" disallow="tram rail_urban rail rail_electric rail_fast ship container cable_car subway aircraft wheelchair scooter drone" speed="10.64" length="9.56" shape="680.51,225.45 683.06,224.59 689.89,225.36"/>
    </edge>
    <edge id=":cluster_12310895539_12310895540_12310895542_12310895543_#3more_21" function="internal">
        <lane id=":cluster_12310895539_12310895540_12310895542_12310895543_#3more_21_0" index="0" disallow="tram rail_urban rail rail_electric rail_fast ship container cable_car subway aircraft wheelchair scooter drone" speed="5.30" length="3.23" shape="673.30,237.13 674.26,240.22"/>
    </edge>
    <edge id=":cluster_12320750667_12320750668_12320750672_12320750673_#7more_0" function="internal">
        <lane id=":cluster_12320750667_12320750668_12320750672_12320750673_#7more_0_0" index="0" disallow="tram rail_urban rail rail_electric rail_fast ship container cable_car subway aircraft wheelchair scooter drone" speed="10.44" length="25.43" shape="270.56,261.42 268.94,255.06 265.39,250.79 259.91,248.62 252.49,248.55"/>
    </edge>
    <edge id=":cluster_12320750667_12320750668_12320750672_12320750673_#7more_1" function="internal">
        <lane id=":cluster_12320750667_12320750668_12320750672_12320750673_#7more_1_0" index="0" disallow="tram rail_urban rail rail_electric rail_fast ship container cable_car subway aircraft wheelchair scooter drone" speed="14.63" length="48.49" shape="270.56,261.42 271.41,248.86 276.44,239.33 285.66,232.84 299.07,229.38"/>
        <lane id=":cluster_12320750667_12320750668_12320750672_12320750673_#7more_1_1" index="1" disallow="tram rail_urban rail rail_electric rail_fast ship container cable_car subway aircraft wheelchair scooter drone" speed="13.95" length="43.98" shape="273.80,261.79 274.56,250.31 279.08,241.61 287.39,235.69 299.47,232.56"/>
    </edge>
    <edge id=":cluster_12320750667_12320750668_12320750672_12320750673_#7more_3" function="internal">
        <lane id=":cluster_12320750667_12320750668_12320750672_12320750673_#7more_3_0" index="0" disallow="tram rail_urban rail rail_electric rail_fast ship container cable_car subway aircraft wheelchair scooter drone" speed="6.16" length="8.44" shape="273.80,261.79 277.05,257.71 280.05,256.51"/>
    </edge>
    <edge id=":cluster_12320750667_12320750668_12320750672_12320750673_#7more_13" function="internal">